
V1 0 1 SIN(0 220 50HZ 0 0 0DEG)
V2 0 2 SIN(0 220 50HZ 0 0 120DEG)
V3 0 3 SIN(0 220 50HZ 0 0 240DEG)
Vs 0 11 DC 0
Vn 6 11 DC 0
L1 1 4 6MH
L2 2 7 6MH
L3 3 9 6MH
L4 4 5 3MH
L5 7 8 4MH
L6 9 10 5MH
R1 5 6 20
R2 8 6 30
R3 10 6 10
.TRAN 20ms 60ms
.PROBE
.END
