VIN 10 PWL(0 0 1M 1 2M 0 3 M 1 4 M 0)
R1 1 2 100
RF 3 4 10K
RX 5 0 10K
RL 4 0 100K
C1 2 3 04U
*CALLING SUBCIRCUIT OPAMP
	XA1 3 5 4 0 OPAMP.SUBCKT OPAMP1 2 7 4
.SUBCKT OPAMP 1 2 7 4	
	RL 1 2 2.0E6
	GB 4 3 1 2 0.MR1 3 4 10K
	C1 3 4 1.5619U
	EA 4 5 3 4 2E+5
	R0 5 7 7 5
.ENDS OPAMP
.TRANS 10U 4M
.PLOT TRAN V(4)V(1)
.PROBE
.END
