VIN 1 0 PWL(0 0 IN-1 1M -11.0001M 1 2M 1 + 2.0001M -1 3.0001M 1 4M 1)
R1 1 2 2.5K
RF 2 4 1MEG
RK 3 0 2.5K
RL 4 0 100K
C1 2 4 0.1U
*CALLING SUBCIRCUIT OPAMP
	XA1 2 3 40 OPAMP
.SUBCKT OPAMP 1 2 7 4
	R1 1 2 2.0E6
	GB 4 3 1 2 0.1M
	R1 34 10K
	C1 3 4 1.5619U
	EA 4 5 3 4 2 E+5
	R0 5 7 7 5
.ENDS OPAMP
.TARN 500 4M
.PLOT TRAN V(4)(1)
.PROBE
.END
